NOVO24/1726519/Linhas.dss
! ==========================================================
! LINHAS — geradas de SSDMT
! Barras = PAC_1 / PAC_2 da BDGD (preservados)
! ==========================================================
New Line.246219094 Bus1=node_437037017.2 Bus2=node_437037212.2 LineCode=CND_907_1F Length=112.19 Units=m
New Line.1939917723 Bus1=100_1063022675.3 Bus2=node_2257205775.3 LineCode=CND_910_1F Length=2.60 Units=m
New Line.246218934 Bus1=node_437036411.3 Bus2=node_437036412.3 LineCode=CND_907_1F Length=153.33 Units=m
New Line.1489760445 Bus1=node_437215111.1 Bus2=node_1797262499.1 LineCode=CND_907_1F Length=2.06 Units=m
New Line.246219609 Bus1=node_437215836.1.2.3 Bus2=node_437215841.1.2.3 LineCode=CND_11_3F Length=32.30 Units=m
New Line.722383921 Bus1=node_706866979.1.2.3 Bus2=node_996130736.1.2.3 LineCode=CND_20_3F Length=38.71 Units=m
New Line.246548633 Bus1=node_438504580.3 Bus2=node_438339473.3 LineCode=CND_907_1F Length=136.90 Units=m
New Line.244956061 Bus1=node_430575559.1.2.3 Bus2=node_430575565.1.2.3 LineCode=CND_11_3F Length=71.80 Units=m
New Line.246218784 Bus1=node_437035656.1 Bus2=node_437035662.1 LineCode=CND_907_1F Length=98.51 Units=m
New Line.244959078 Bus1=node_429004864.1.2.3 Bus2=node_431209030.1.2.3 LineCode=CND_11_3F Length=122.96 Units=m
New Line.244638343 Bus1=node_429003840.2 Bus2=node_429003841.2 LineCode=CND_902_1F Length=42.96 Units=m
New Line.246220508 Bus1=node_437370625.2 Bus2=node_437217840.2 LineCode=CND_907_1F Length=96.15 Units=m
New Line.246221480 Bus1=node_437538558.1 Bus2=node_437538658.1 LineCode=CND_907_1F Length=233.92 Units=m
New Line.244958700 Bus1=node_431048249.1 Bus2=node_431048250.1 LineCode=CND_907_1F Length=44.41 Units=m
New Line.247322670 Bus1=node_736086086.1.2.3 Bus2=node_442529177.1.2.3 LineCode=CND_13_3F Length=51.00 Units=m
New Line.244638520 Bus1=node_429004729.2 Bus2=node_429004724.2 LineCode=CND_902_1F Length=41.21 Units=m
New Line.914046609 Bus1=node_437539513.2 Bus2=node_1174615135.2 LineCode=CND_907_1F Length=233.64 Units=m
New Line.244958814 Bus1=node_429172770.1 Bus2=node_431048759.1 LineCode=CND_907_1F Length=73.77 Units=m
New Line.898682723 Bus1=node_1161286595.1.2.3 Bus2=node_444948932.1.2.3 LineCode=CND_22_3F Length=40.38 Units=m
New Line.245759883 Bus1=node_434740998.1.2.3 Bus2=node_434740999.1.2.3 LineCode=CND_271_3F Length=37.55 Units=m
New Line.246221134 Bus1=node_435069621.1.2.3 Bus2=node_437373756.1.2.3 LineCode=CND_11_3F Length=145.74 Units=m
New Line.246220821 Bus1=node_437216871.3 Bus2=node_436892959.3 LineCode=CND_907_1F Length=646.22 Units=m
New Line.245823250 Bus1=node_428149925.1.2.3 Bus2=node_434920261.1.2.3 LineCode=CND_20_3F Length=22.71 Units=m
New Line.246219424 Bus1=node_430738395.1 Bus2=node_437038862.1 LineCode=CND_907_1F Length=119.62 Units=m
New Line.246218698 Bus1=node_437035231.2 Bus2=node_437035232.2 LineCode=CND_907_1F Length=103.44 Units=m
New Line.243807618 Bus1=node_425476903.1.2.3 Bus2=node_425476583.1.2.3 LineCode=CND_456_3F Length=36.57 Units=m
New Line.244796058 Bus1=node_430411010.1 Bus2=node_430411030.1 LineCode=CND_907_1F Length=25.52 Units=m
New Line.244958773 Bus1=node_431047905.1 Bus2=node_431045309.1 LineCode=CND_907_1F Length=77.24 Units=m
New Line.246548999 Bus1=node_438506410.2 Bus2=node_438504415.2 LineCode=CND_907_1F Length=270.99 Units=m
New Line.246379197 Bus1=node_438172671.3 Bus2=node_430892461.3 LineCode=CND_907_1F Length=141.06 Units=m
New Line.244957187 Bus1=node_430890386.1.2.3 Bus2=node_430890387.1.2.3 LineCode=CND_11_3F Length=96.97 Units=m
New Line.246377134 Bus1=node_437694302.2 Bus2=node_437694087.2 LineCode=CND_907_1F Length=128.66 Units=m
New Line.243807024 Bus1=node_425292558.1.2.3 Bus2=node_425292297.1.2.3 LineCode=CND_50_3F Length=21.95 Units=m
New Line.243807708 Bus1=node_425477357.1.2.3 Bus2=node_425477358.1.2.3 LineCode=CND_13_3F Length=277.20 Units=m
New Line.246380140 Bus1=node_438335994.2 Bus2=node_438176255.2 LineCode=CND_907_1F Length=104.60 Units=m
New Line.243808119 Bus1=node_425479424.1.2.3 Bus2=node_425479398.1.2.3 LineCode=CND_50_3F Length=39.92 Units=m
New Line.548124847 Bus1=node_438176281.3 Bus2=node_778008455.3 LineCode=CND_910_1F Length=355.45 Units=m
New Line.246219164 Bus1=node_437037561.1 Bus2=node_437037562.1 LineCode=CND_907_1F Length=29.47 Units=m
New Line.246219214 Bus1=node_437037382.2 Bus2=node_437037812.2 LineCode=CND_902_1F Length=50.08 Units=m
New Line.246219737 Bus1=node_437036437.2 Bus2=node_437216481.2 LineCode=CND_907_1F Length=255.07 Units=m
New Line.246220507 Bus1=node_437370620.1 Bus2=node_437370621.1 LineCode=CND_907_1F Length=290.08 Units=m
New Line.246380104 Bus1=node_438336093.1 Bus2=node_429174928.1 LineCode=CND_907_1F Length=81.39 Units=m
New Line.243742412 Bus1=node_424845980.1.2.3 Bus2=node_424845981.1.2.3 LineCode=CND_50_3F Length=35.29 Units=m
New Line.246219801 Bus1=node_437035462.2 Bus2=node_437216801.2 LineCode=CND_907_1F Length=9.81 Units=m
New Line.246379166 Bus1=node_437866992.1.2.3 Bus2=node_438013644.1.2.3 LineCode=CND_11_3F Length=345.10 Units=m
New Line.243807867 Bus1=node_425478156.2 Bus2=node_425477347.2 LineCode=CND_911_1F Length=36.68 Units=m
New Line.246377271 Bus1=node_437694033.2 Bus2=node_437694447.2 LineCode=CND_907_1F Length=422.83 Units=m
New Line.243807684 Bus1=node_425477237.1.2.3 Bus2=node_425477238.1.2.3 LineCode=CND_13_3F Length=210.62 Units=m
New Line.246377583 Bus1=node_435068876.2 Bus2=node_437864019.2 LineCode=CND_907_1F Length=141.53 Units=m
New Line.246379433 Bus1=node_438173860.1.2.3 Bus2=node_438173861.1.2.3 LineCode=CND_11_3F Length=99.88 Units=m
New Line.353943206 Bus1=100_353941657.1.2.3 Bus2=node_425293416.1.2.3 LineCode=CND_13_3F Length=64.36 Units=m
New Line.246549723 Bus1=node_438655892.2 Bus2=node_438656027.2 LineCode=CND_907_1F Length=129.21 Units=m
New Line.567787032 Bus1=node_429174738.1 Bus2=node_836071860.1 LineCode=CND_902_1F Length=24.33 Units=m
New Line.247322654 Bus1=node_442529223.1.2.3 Bus2=node_442529588.1.2.3 LineCode=CND_271_3F Length=43.55 Units=m
New Line.246221207 Bus1=node_437537292.1 Bus2=node_437537293.1 LineCode=CND_902_1F Length=36.06 Units=m
New Line.245759559 Bus1=node_434739366.2 Bus2=node_434739081.2 LineCode=CND_911_1F Length=28.66 Units=m
New Line.246220136 Bus1=node_437037217.1.2.3 Bus2=node_437218476.1.2.3 LineCode=CND_11_3F Length=176.20 Units=m
New Line.246220960 Bus1=node_437372885.1.2.3 Bus2=node_437372886.1.2.3 LineCode=CND_19_3F Length=34.57 Units=m
New Line.246220509 Bus1=node_437370630.2 Bus2=node_437370625.2 LineCode=CND_907_1F Length=64.71 Units=m
New Line.246379291 Bus1=node_438013744.3 Bus2=node_438173147.3 LineCode=CND_907_1F Length=135.98 Units=m
New Line.244638368 Bus1=node_425477352.1.2.3 Bus2=node_429003126.1.2.3 LineCode=CND_19_3F Length=31.36 Units=m
New Line.243806920 Bus1=node_425293037.1.2.3 Bus2=node_425292417.1.2.3 LineCode=CND_50_3F Length=34.01 Units=m
New Line.244956135 Bus1=node_430575934.1 Bus2=node_430575935.1 LineCode=CND_907_1F Length=234.60 Units=m
New Line.243742911 Bus1=node_424847867.1.2.3 Bus2=node_424846100.1.2.3 LineCode=CND_20_3F Length=32.79 Units=m
New Line.1702223194 Bus1=node_438174251.2 Bus2=node_2027948886.2 LineCode=CND_907_1F Length=98.97 Units=m
New Line.246218794 Bus1=node_437035711.1.2.3 Bus2=node_437035561.1.2.3 LineCode=CND_11_3F Length=150.14 Units=m
New Line.246218737 Bus1=node_437035426.1 Bus2=node_437035427.1 LineCode=CND_907_1F Length=21.74 Units=m
New Line.246221121 Bus1=node_437373486.1 Bus2=node_437373691.1 LineCode=CND_907_1F Length=113.78 Units=m
New Line.246221402 Bus1=node_437538173.1.2.3 Bus2=node_437538268.1.2.3 LineCode=CND_19_3F Length=23.64 Units=m
New Line.244638873 Bus1=node_429173959.3 Bus2=node_429173965.3 LineCode=CND_902_1F Length=56.25 Units=m
New Line.246222193 Bus1=node_437539458.1 Bus2=node_437539092.1 LineCode=CND_907_1F Length=72.81 Units=m
New Line.246378285 Bus1=node_437867536.2 Bus2=node_425625808.2 LineCode=CND_907_1F Length=309.84 Units=m
New Line.246377304 Bus1=node_437695152.1.2.3 Bus2=node_437695158.1.2.3 LineCode=CND_11_3F Length=105.35 Units=m
New Line.246379055 Bus1=node_430575544.1.2.3 Bus2=node_438011923.1.2.3 LineCode=CND_11_3F Length=120.98 Units=m
New Line.244958833 Bus1=node_431207788.1 Bus2=node_431207793.1 LineCode=CND_907_1F Length=51.14 Units=m
New Line.246218946 Bus1=node_437036287.2 Bus2=node_437036472.2 LineCode=CND_902_1F Length=88.83 Units=m
New Line.246552098 Bus1=node_437038337.2 Bus2=node_439118727.2 LineCode=CND_907_1F Length=56.43 Units=m
New Line.246219149 Bus1=node_437037472.1.2.3 Bus2=node_437037487.1.2.3 LineCode=CND_11_3F Length=118.73 Units=m
New Line.246221881 Bus1=node_437540662.1 Bus2=node_437540663.1 LineCode=CND_902_1F Length=71.55 Units=m
New Line.246218646 Bus1=node_437034772.1 Bus2=node_437034972.1 LineCode=CND_907_1F Length=217.93 Units=m
New Line.1551138967 Bus1=node_1870848979.2 Bus2=node_1870848990.2 LineCode=CND_902_1F Length=31.81 Units=m
New Line.2677597528 Bus1=node_2851363492.1.2.3 Bus2=node_2851363502.1.2.3 LineCode=CND_20_3F Length=25.60 Units=m
New Line.246548849 Bus1=node_438176276.3 Bus2=node_438505661.3 LineCode=CND_907_1F Length=112.91 Units=m
New Line.246222020 Bus1=node_437541361.2 Bus2=node_437541362.2 LineCode=CND_907_1F Length=399.12 Units=m
New Line.244957550 Bus1=node_429004369.1 Bus2=node_430892076.1 LineCode=CND_907_1F Length=168.83 Units=m
New Line.246379351 Bus1=node_438173445.2 Bus2=node_438173451.2 LineCode=CND_907_1F Length=238.30 Units=m
New Line.246379222 Bus1=node_438172801.1.2.3 Bus2=node_438172802.1.2.3 LineCode=CND_11_3F Length=143.65 Units=m
New Line.244958982 Bus1=node_429004839.1 Bus2=node_429004829.1 LineCode=CND_907_1F Length=137.50 Units=m
New Line.243742426 Bus1=node_424845981.1.2.3 Bus2=node_424846051.1.2.3 LineCode=CND_50_3F Length=38.73 Units=m
New Line.246379450 Bus1=node_430892576.2 Bus2=node_438173946.2 LineCode=CND_907_1F Length=202.43 Units=m
New Line.246221760 Bus1=node_437540057.1 Bus2=node_437540058.1 LineCode=CND_907_1F Length=135.73 Units=m
New Line.244638014 Bus1=node_425292777.1.2.3 Bus2=node_429002188.1.2.3 LineCode=CND_19_3F Length=33.47 Units=m
New Line.244956720 Bus1=node_430737745.1.2.3 Bus2=node_430737746.1.2.3 LineCode=CND_11_3F Length=109.61 Units=m
New Line.246221328 Bus1=node_437537897.1.2.3 Bus2=node_437537898.1.2.3 LineCode=CND_19_3F Length=34.55 Units=m
New Line.246220773 Bus1=node_437370341.2 Bus2=node_437370215.2 LineCode=CND_907_1F Length=75.38 Units=m
New Line.246221460 Bus1=node_437538557.1 Bus2=node_437538558.1 LineCode=CND_907_1F Length=154.36 Units=m
New Line.246376989 Bus1=node_437693577.1 Bus2=node_437693583.1 LineCode=CND_907_1F Length=50.33 Units=m
New Line.244462414 Bus1=node_427668665.1.2.3 Bus2=node_428149900.1.2.3 LineCode=CND_19_3F Length=43.55 Units=m
New Line.1551139287 Bus1=node_1870849166.2 Bus2=node_1870849739.2 LineCode=CND_907_1F Length=4.26 Units=m
New Line.244955881 Bus1=node_430574655.1 Bus2=node_429173300.1 LineCode=CND_907_1F Length=118.42 Units=m
New Line.246221483 Bus1=node_429002413.1.2.3 Bus2=node_425292777.1.2.3 LineCode=CND_19_3F Length=33.80 Units=m
New Line.246221459 Bus1=node_437538552.1.2.3 Bus2=node_437538553.1.2.3 LineCode=CND_19_3F Length=34.83 Units=m
New Line.246221272 Bus1=node_434739047.1 Bus2=node_437537618.1 LineCode=CND_907_1F Length=42.33 Units=m
New Line.2204515723 Bus1=node_428683984.1.2.3 Bus2=node_428683969.1.2.3 LineCode=CND_20_3F Length=24.45 Units=m
New Line.244958378 Bus1=node_431046639.1 Bus2=node_431046640.1 LineCode=CND_907_1F Length=62.22 Units=m
New Line.247322935 Bus1=node_437695822.1.2.3 Bus2=node_442531001.1.2.3 LineCode=CND_13_3F Length=130.51 Units=m
New Line.246378516 Bus1=node_438010393.3 Bus2=node_438010394.3 LineCode=CND_907_1F Length=110.94 Units=m
New Line.244955636 Bus1=node_429003216.1 Bus2=node_430573432.1 LineCode=CND_907_1F Length=93.46 Units=m
New Line.246218931 Bus1=node_436892860.1 Bus2=node_437036161.1 LineCode=CND_907_1F Length=107.94 Units=m
New Line.1359583499 Bus1=node_1654117590.1.2.3 Bus2=node_1654117601.1.2.3 LineCode=CND_20_3F Length=33.28 Units=m
New Line.243742434 Bus1=node_424846090.1.2.3 Bus2=node_424846085.1.2.3 LineCode=CND_50_3F Length=31.82 Units=m
New Line.352658221 Bus1=node_437037487.1.2.3 Bus2=node_1332918183.1.2.3 LineCode=CND_11_3F Length=120.96 Units=m
New Line.245759635 Bus1=node_434739750.1.2.3 Bus2=node_425475651.1.2.3 LineCode=CND_30_3F Length=133.21 Units=m
New Line.244959730 Bus1=node_431366885.2 Bus2=node_431366886.2 LineCode=CND_907_1F Length=157.02 Units=m
New Line.244958845 Bus1=node_431047830.1 Bus2=node_429004694.1 LineCode=CND_907_1F Length=102.46 Units=m
New Line.246379679 Bus1=node_438175046.2 Bus2=node_430892301.2 LineCode=CND_907_1F Length=45.52 Units=m
New Line.246218576 Bus1=node_436892919.3 Bus2=node_436892920.3 LineCode=CND_907_1F Length=200.50 Units=m
New Line.246548806 Bus1=node_438335879.3 Bus2=node_429174453.3 LineCode=CND_907_1F Length=219.50 Units=m
New Line.243807603 Bus1=node_425476828.1.2.3 Bus2=node_425476829.1.2.3 LineCode=CND_50_3F Length=25.15 Units=m
New Line.244638509 Bus1=node_429004674.2 Bus2=node_429004675.2 LineCode=CND_902_1F Length=70.00 Units=m
New Line.244795522 Bus1=node_430258035.1 Bus2=node_430258036.1 LineCode=CND_907_1F Length=135.84 Units=m
New Line.243807949 Bus1=node_425478578.1.2.3 Bus2=node_425478579.1.2.3 LineCode=CND_20_3F Length=40.77 Units=m
New Line.246220216 Bus1=node_437218851.2 Bus2=node_437218876.2 LineCode=CND_907_1F Length=57.00 Units=m
New Line.246220198 Bus1=node_437036012.2 Bus2=node_437218786.2 LineCode=CND_902_1F Length=98.48 Units=m
New Line.245759571 Bus1=node_434739082.2 Bus2=node_434739427.2 LineCode=CND_911_1F Length=36.35 Units=m
New Line.244796324 Bus1=node_430412367.2 Bus2=node_430412368.2 LineCode=CND_907_1F Length=72.21 Units=m
New Line.246380145 Bus1=node_438336293.3 Bus2=node_438336018.3 LineCode=CND_907_1F Length=207.16 Units=m
New Line.246221385 Bus1=node_437538058.1.2.3 Bus2=node_437370480.1.2.3 LineCode=CND_19_3F Length=29.24 Units=m
New Line.246378118 Bus1=node_437866672.2 Bus2=node_437866702.2 LineCode=CND_902_1F Length=67.24 Units=m
New Line.244956596 Bus1=node_430737125.1 Bus2=node_429175048.1 LineCode=CND_907_1F Length=67.69 Units=m
New Line.246379285 Bus1=node_438173111.3 Bus2=node_438173117.3 LineCode=CND_907_1F Length=354.44 Units=m
New Line.244481937 Bus1=node_428685534.1.2.3 Bus2=node_428685529.1.2.3 LineCode=CND_20_3F Length=35.12 Units=m
New Line.246549711 Bus1=node_438655956.2 Bus2=node_431045969.2 LineCode=CND_907_1F Length=188.89 Units=m
New Line.246549731 Bus1=node_437373621.2 Bus2=node_438656061.2 LineCode=CND_907_1F Length=108.51 Units=m
New Line.246219802 Bus1=node_437035462.2 Bus2=node_437216806.2 LineCode=CND_902_1F Length=40.82 Units=m
New Line.246219990 Bus1=node_437217740.1 Bus2=node_430411957.1 LineCode=CND_907_1F Length=139.84 Units=m
New Line.246221188 Bus1=node_437537163.1 Bus2=node_437537198.1 LineCode=CND_907_1F Length=82.54 Units=m
New Line.246380700 Bus1=node_438338924.1.2.3 Bus2=node_438339074.1.2.3 LineCode=CND_19_3F Length=73.71 Units=m
New Line.244638047 Bus1=node_429002303.1.2.3 Bus2=node_706865550.1.2.3 LineCode=CND_19_3F Length=18.25 Units=m
New Line.1910980383 Bus1=node_2298174582.1.2.3 Bus2=node_2298174685.1.2.3 LineCode=CND_20_3F Length=3.42 Units=m
New Line.243742309 Bus1=node_424845171.1.2.3 Bus2=node_424844615.1.2.3 LineCode=CND_50_3F Length=36.66 Units=m
New Line.244639887 Bus1=node_429303579.1 Bus2=node_429303574.1 LineCode=CND_902_1F Length=48.39 Units=m
New Line.243807679 Bus1=node_425476564.1.2.3 Bus2=node_425477213.1.2.3 LineCode=CND_13_3F Length=238.10 Units=m
New Line.996633195 Bus1=node_1259207135.1 Bus2=node_1259207146.1 LineCode=CND_907_1F Length=66.10 Units=m
New Line.1627954254 Bus1=node_1948157761.1 Bus2=node_1948157969.1 LineCode=CND_926_1F Length=2.26 Units=m
New Line.246378168 Bus1=node_437866946.3 Bus2=node_437866952.3 LineCode=CND_907_1F Length=93.94 Units=m
New Line.246548700 Bus1=node_438504910.3 Bus2=node_438504916.3 LineCode=CND_907_1F Length=111.90 Units=m
New Line.243807628 Bus1=node_425476953.1.2.3 Bus2=node_425476954.1.2.3 LineCode=CND_50_3F Length=28.73 Units=m
New Line.246220278 Bus1=node_437219185.1.2.3 Bus2=node_437219145.1.2.3 LineCode=CND_11_3F Length=173.68 Units=m
New Line.244462420 Bus1=node_428149924.1.2.3 Bus2=node_428149930.1.2.3 LineCode=CND_19_3F Length=20.52 Units=m
New Line.246377010 Bus1=node_437693687.1 Bus2=node_437693688.1 LineCode=CND_902_1F Length=52.96 Units=m
New Line.246376973 Bus1=node_437693502.1 Bus2=node_437693447.1 LineCode=CND_907_1F Length=70.54 Units=m
New Line.246552074 Bus1=node_437539498.1 Bus2=node_439118658.1 LineCode=CND_902_1F Length=36.05 Units=m
New Line.244795938 Bus1=node_429003915.1 Bus2=node_430410426.1 LineCode=CND_907_1F Length=114.42 Units=m
New Line.246222074 Bus1=node_437541412.1 Bus2=node_437691922.1 LineCode=CND_907_1F Length=222.81 Units=m
New Line.2757353527 Bus1=node_425475487.1.2.3 Bus2=node_2704979713.1.2.3 LineCode=CND_382_3F Length=13.39 Units=m
New Line.1180072837 Bus1=node_1451981815.1 Bus2=node_1451981934.1 LineCode=CND_902_1F Length=2.36 Units=m
New Line.246377857 Bus1=node_437865347.3 Bus2=node_437865393.3 LineCode=CND_907_1F Length=155.21 Units=m
New Line.245759469 Bus1=node_434738817.2 Bus2=node_434738917.2 LineCode=CND_911_1F Length=28.96 Units=m
New Line.243806906 Bus1=node_425292613.1.2.3 Bus2=node_425292968.1.2.3 LineCode=CND_50_3F Length=40.63 Units=m
New Line.1254792740 Bus1=node_437865178.1 Bus2=node_1553539275.1 LineCode=CND_907_1F Length=346.68 Units=m
New Line.246221397 Bus1=node_437538242.1.2.3 Bus2=node_437538243.1.2.3 LineCode=CND_19_3F Length=27.33 Units=m
New Line.246219540 Bus1=node_437038912.1 Bus2=node_430890186.1 LineCode=CND_907_1F Length=162.75 Units=m
New Line.246220545 Bus1=node_437370625.2 Bus2=node_437370595.2 LineCode=CND_907_1F Length=70.63 Units=m
New Line.2204514693 Bus1=node_2510119258.2 Bus2=node_2510119507.2 LineCode=CND_902_1F Length=5.45 Units=m
New Line.886608230 Bus1=100_886608262.1 Bus2=node_1151432286.1 LineCode=CND_907_1F Length=1.41 Units=m
New Line.246221431 Bus1=node_437370871.2 Bus2=node_437373140.2 LineCode=CND_907_1F Length=383.19 Units=m
New Line.246379283 Bus1=node_438013754.3 Bus2=node_438173107.3 LineCode=CND_907_1F Length=52.73 Units=m
New Line.246221000 Bus1=node_437373085.1.2.3 Bus2=node_437373086.1.2.3 LineCode=CND_19_3F Length=31.75 Units=m
New Line.246218703 Bus1=node_437035256.2 Bus2=node_437035257.2 LineCode=CND_907_1F Length=123.85 Units=m
New Line.246379900 Bus1=node_438172737.3 Bus2=node_438175525.3 LineCode=CND_907_1F Length=202.56 Units=m
New Line.244958785 Bus1=node_431048674.1 Bus2=node_431048675.1 LineCode=CND_907_1F Length=221.51 Units=m
New Line.246379188 Bus1=node_438013748.3 Bus2=node_438013754.3 LineCode=CND_907_1F Length=77.62 Units=m
New Line.244956460 Bus1=node_430736437.3 Bus2=node_429173650.3 LineCode=CND_907_1F Length=100.00 Units=m
New Line.246378173 Bus1=node_437866657.1.2.3 Bus2=node_437866977.1.2.3 LineCode=CND_11_3F Length=127.15 Units=m
New Line.246220746 Bus1=node_437371810.1.2.3 Bus2=node_437371816.1.2.3 LineCode=CND_11_3F Length=72.93 Units=m
New Line.246221861 Bus1=node_437540562.2 Bus2=node_437540492.2 LineCode=CND_907_1F Length=81.62 Units=m
New Line.246596505 Bus1=node_438394810.1.2.3 Bus2=node_438786669.1.2.3 LineCode=CND_19_3F Length=36.14 Units=m
New Line.243807662 Bus1=node_425477123.1.2.3 Bus2=node_425476948.1.2.3 LineCode=CND_50_3F Length=41.00 Units=m
New Line.247322704 Bus1=node_425475951.1.2.3 Bus2=node_442529826.1.2.3 LineCode=CND_13_3F Length=125.24 Units=m
New Line.510999261 Bus1=node_781139370.1.2.3 Bus2=node_781139342.1.2.3 LineCode=CND_20_3F Length=28.47 Units=m
New Line.246379279 Bus1=node_438172707.2 Bus2=node_438173087.2 LineCode=CND_907_1F Length=124.19 Units=m
New Line.246220556 Bus1=node_437370596.2 Bus2=node_437370860.2 LineCode=CND_907_1F Length=121.82 Units=m
New Line.246377586 Bus1=node_435068876.2 Bus2=node_437864034.2 LineCode=CND_907_1F Length=105.78 Units=m
New Line.246220807 Bus1=node_437370816.2 Bus2=node_437036921.2 LineCode=CND_907_1F Length=348.51 Units=m
New Line.246377380 Bus1=node_437695523.2 Bus2=node_437695538.2 LineCode=CND_907_1F Length=61.10 Units=m
New Line.243806954 Bus1=node_425293163.1.2.3 Bus2=node_425293087.1.2.3 LineCode=CND_50_3F Length=34.59 Units=m
New Line.246377980 Bus1=node_437865638.1 Bus2=node_437866008.1 LineCode=CND_907_1F Length=32.86 Units=m
New Line.246596504 Bus1=node_438786663.1.2.3 Bus2=node_438394804.1.2.3 LineCode=CND_19_3F Length=42.38 Units=m
New Line.244481786 Bus1=node_428684720.1.2.3 Bus2=node_428684749.1.2.3 LineCode=CND_20_3F Length=38.48 Units=m
New Line.247322881 Bus1=node_442530730.1.2.3 Bus2=node_442530731.1.2.3 LineCode=CND_13_3F Length=116.59 Units=m
New Line.246380275 Bus1=node_438176591.2 Bus2=node_429175063.2 LineCode=CND_902_1F Length=91.98 Units=m
New Line.244957711 Bus1=node_430893001.1 Bus2=node_430893007.1 LineCode=CND_907_1F Length=156.60 Units=m
New Line.247322949 Bus1=node_442531001.1.2.3 Bus2=node_442531040.1.2.3 LineCode=CND_13_3F Length=156.68 Units=m
New Line.246218672 Bus1=node_437035101.3 Bus2=node_437035061.3 LineCode=CND_907_1F Length=102.99 Units=m
New Line.243806899 Bus1=node_425292927.1.2.3 Bus2=node_425292322.1.2.3 LineCode=CND_50_3F Length=16.66 Units=m
New Line.244481795 Bus1=node_428684824.1.2.3 Bus2=node_428684825.1.2.3 LineCode=CND_20_3F Length=28.69 Units=m
New Line.243807172 Bus1=node_425292813.1.2.3 Bus2=node_425292682.1.2.3 LineCode=CND_50_3F Length=5.04 Units=m
New Line.244638112 Bus1=node_429002677.1 Bus2=node_429002678.1 LineCode=CND_902_1F Length=18.89 Units=m
New Line.245759868 Bus1=node_434740923.2 Bus2=node_434740924.2 LineCode=CND_1112_1F Length=152.81 Units=m
...
